#======================================================================

# CRYSTAL DATA

#----------------------------------------------------------------------

data_VESTA_phase_1


_pd_phase_name                         'Bi4Fe5O13F'
_cell_length_a                         8.29950
_cell_length_b                         8.29950
_cell_length_c                         18.05730
_cell_angle_alpha                      90
_cell_angle_beta                       90
_cell_angle_gamma                      90
_symmetry_space_group_name_H-M         'P 42/m b c'
_symmetry_Int_Tables_number            135

loop_
_symmetry_equiv_pos_as_xyz
   'x, y, z'
   '-x, -y, -z'
   '-x, -y, z'
   'x, y, -z'
   '-y, x, z+1/2'
   'y, -x, -z+1/2'
   'y, -x, z+1/2'
   '-y, x, -z+1/2'
   '-x+1/2, y+1/2, -z'
   'x+1/2, -y+1/2, z'
   'x+1/2, -y+1/2, -z'
   '-x+1/2, y+1/2, z'
   'y+1/2, x+1/2, -z+1/2'
   '-y+1/2, -x+1/2, z+1/2'
   '-y+1/2, -x+1/2, -z+1/2'
   'y+1/2, x+1/2, z+1/2'

loop_
   _atom_site_label
   _atom_site_occupancy
   _atom_site_fract_x
   _atom_site_fract_y
   _atom_site_fract_z
   _atom_site_adp_type
   _atom_site_B_iso_or_equiv
   _atom_site_type_symbol
   Bi         1.0     0.670600      0.659200      0.156970     Biso  1.000000 Bi3+
   Fe1        1.0     0.500000      0.000000      0.080000     Biso  1.000000 Fe3+
   Fe2        1.0     0.851500      0.838800      0.000000     Biso  1.000000 Fe3+
   Fe3        1.0     0.500000      0.000000      0.250000     Biso  1.000000 Fe3+
#  O1         1.0     0.000000      0.000000      0.007200     Biso  1.000000 O2-
   O1         1.0     0.000000      0.000000      0.000000     Biso  1.000000 O2-
   O2         1.0     0.291400      0.876000      0.585800     Biso  1.000000 O2-
   O3         1.0     0.136200      0.590000      0.000000     Biso  1.000000 O2-
   O4         1.0     0.326800      0.826800      0.750000     Biso  1.000000 O2-
   O5         1.0     0.582300      0.860300      0.333100     Biso  1.000000 O2-
#  F          1.0     0.024000      0.000000      0.259700     Biso  1.000000 F-
   F          1.0     0.000000      0.000000      0.250000     Biso  1.000000 F-
